27

O          2.11390        0.00000        0.00000
N          0.52740       -1.21940        0.00000
C          1.41770       -2.10550        0.00000
C          2.67510       -2.10550        0.00000
C          1.09280       -3.32490        0.00000
C          0.32490       -2.73840        0.00000
C          3.00420       -0.89030        0.00000
C          0.00000       -3.95360        0.00000
C          3.76800       -2.73840        0.00000
C          2.35020       -3.32490        0.00000
C          3.44310       -3.95360        0.00000
C          4.21940       -0.56540        0.00000
H          0.01611       -0.33680        0.00000
H          1.82600       -1.11647        0.00000
H          0.10445       -2.91494        0.00000
H         -0.52461       -2.08783        0.00000
H         -0.68806       -3.08310        0.00000
H         -0.65179       -4.80217        0.00000
H         -0.95967       -3.48038        0.00000
H          4.72159       -2.34384        0.00000
H          2.62632       -2.29114        0.00000
H          3.33827       -2.91426        0.00000
H          3.85362       -4.94172        0.00000
H          2.63956       -4.66016        0.00000
H          4.97559       -1.32242        0.00000
H          4.49690        0.46799        0.00000
H          5.25309       -0.28903        0.00000
