60

C          5.43370       -2.35600        0.00000
C          5.59960       -4.23910        0.00000
C          6.89380       -5.11850        0.00000
C          4.20600       -5.09360        0.00000
C          4.55440       -6.75280        0.00000
C          1.30240       -5.18490        0.00000
C          2.63810       -4.30550        0.00000
C          4.01520       -0.40650        0.00000
C          3.98200       -1.61770        0.00000
C          2.53850       -2.53020        0.00000
C          1.11160       -2.30620        0.00000
C          1.34390       -1.28580        0.00000
C          2.96160       -0.23230        0.00000
C          5.62450       -0.42310        0.00000
C          7.69850       -2.65460        0.00000
C          7.88100       -4.42990        0.00000
C          6.18860       -6.71960        0.00000
C          3.33490       -7.55750        0.00000
C          1.70890       -6.81080        0.00000
C          0.45630       -3.96540        0.00000
C          0.00000       -4.31380        0.00000
C          0.82960       -1.65920        0.00000
C          3.02800        0.00000        0.00000
C          5.82360       -0.24060        0.00000
C          7.92250       -2.49700        0.00000
C          8.19620       -5.16830        0.00000
C          6.61170       -7.51600        0.00000
C          3.73310       -8.29580        0.00000
C          1.22780       -7.10120        0.00000
C          5.40060       -8.29580        0.00000
C          5.59960       -7.91420        0.00000
C          7.49940       -6.79420        0.00000
C          6.98500       -6.96020        0.00000
C          7.06800       -5.81530        0.00000
C          8.20450       -4.04830        0.00000
C          7.65700       -4.38850        0.00000
C          6.38770       -1.70060        0.00000
C          4.81160       -0.04980        0.00000
C          5.74900       -3.95710        0.00000
C          5.87340       -5.55820        0.00000
C          4.42990       -6.41260        0.00000
C          4.40510       -7.59890        0.00000
C          2.46380       -7.95570        0.00000
C          2.81230       -7.69850        0.00000
C          1.98270       -6.42920        0.00000
C          3.07770       -5.72410        0.00000
C          4.23910       -3.31830        0.00000
C          3.96540       -1.83340        0.00000
C          1.87480       -0.68030        0.00000
C          2.37260       -1.80850        0.00000
C          3.01970       -4.08150        0.00000
C          1.80020       -3.26850        0.00000
C          0.14930       -3.13580        0.00000
C          0.70510       -3.94880        0.00000
C          0.82130       -5.61620        0.00000
C          0.39820       -5.79050        0.00000
C          5.09360       -1.01210        0.00000
C          6.96020       -1.22780        0.00000
C          6.79420       -3.21050        0.00000
C          6.57860       -1.57620        0.00000
