26

N          5.70980       -2.65810        0.00000
C          2.32670       -1.99530        0.00000
C          3.45210       -2.65810        0.00000
C          4.57750       -1.99530        0.00000
C          1.12540       -2.65810        0.00000
C          2.32670       -0.66970        0.00000
C          0.00000       -1.99530        0.00000
C          1.12540        0.00000        0.00000
C          0.00000       -0.66970        0.00000
C          4.57750       -0.66970        0.00000
C          6.90420       -1.99530        0.00000
H          5.69809       -3.67803        0.00000
H          3.45210       -3.72810        0.00000
H          4.38105       -3.18909        0.00000
H          5.50574       -1.46308        0.00000
H          1.11091       -3.69000        0.00000
H          3.21653       -0.14700        0.00000
H         -0.89596       -2.50743        0.00000
H          1.11084        1.03190        0.00000
H         -0.89712       -0.15961        0.00000
H          5.50415       -0.13470        0.00000
H          3.65085       -0.13470        0.00000
H          4.57750        0.40030        0.00000
H          7.82163       -2.54596        0.00000
H          6.92237       -0.92545        0.00000
H          7.83980       -1.47611        0.00000
